/*--------------------------------*- C++ -*----------------------------------*\
| =========                 |                                                 |
| \\      /  F ield         | OpenFOAM: The Open Source CFD Toolbox           |
|  \\    /   O peration     | Version:  2.2.x                                 |
|   \\  /    A nd           | Web:      www.OpenFOAM.org                      |
|    \\/     M anipulation  |                                                 |
\*---------------------------------------------------------------------------*/
FoamFile
{
    version     2.0;
    format      binary;
    class       polyBoundaryMesh;
    location    "constant/polyMesh";
    object      boundary;
}
// * * * * * * * * * * * * * * * * * * * * * * * * * * * * * * * * * * * * * //

4
(
    top
    {
        type            patch;
        nFaces          60;
        startFace       13260;
    }
    bottom
    {
        type            patch;
        nFaces          60;
        startFace       13320;
    }
    walls
    {
        type            wall;
        nFaces          360;
        startFace       13380;
    }
    frontAndBack
    {
        type            symmetryPlane;
        inGroups        1(symmetryPlane);
        nFaces          5400;
        startFace       13740;
    }
)

// ************************************************************************* //
