/*--------------------------------*- C++ -*----------------------------------*\
| =========                 |                                                 |
| \\      /  F ield         | OpenFOAM: The Open Source CFD Toolbox           |
|  \\    /   O peration     | Version:  2.2.2                                 |
|   \\  /    A nd           | Web:      www.OpenFOAM.org                      |
|    \\/     M anipulation  |                                                 |
\*---------------------------------------------------------------------------*/
FoamFile
{
    version     2.0;
    format      ascii;
    class       dictionary;
    object      controlDict;
}
// * * * * * * * * * * * * * * * * * * * * * * * * * * * * * * * * * * * * * //

// So we get a decent warning if we have multiple functionObject entries
// with the same name.
#inputMode error;

application     icoFoam;

startFrom       startTime;

startTime       0;

stopAt          endTime;

endTime         0.5;

deltaT          0.005;

writeControl    timeStep;

writeInterval   20;

purgeWrite      0;

writeFormat     ascii;

writePrecision  6;

writeCompression uncompressed;

timeFormat      general;

timePrecision   6;

runTimeModifiable yes;

functions
{

    dumpObjects
    {
        // Forcibly write registered objects. E.g. fields that have been
        // created with NO_WRITE.

        type            writeRegisteredObject;

        // Where to load it from
        functionObjectLibs ("libIOFunctionObjects.so");

        // Execute upon options:
        //  timeStep
        //  outputTime
        //  adjustableTime
        //  runTime
        //  clockTime
        //  cpuTime

        outputControl   outputTime;

        // Is the object written by this function Object alone
        exclusiveWriting       true;

        // Objects to write
        objectNames    ();

        // Write as normal every writeInterval'th outputTime.
        outputInterval  1; // (timeStep, outputTime)

        // Interval of time (sec) to write down(
        writeInterval   10.5 //(adjustableTime, runTime, clockTime, cpuTime)
    }
}

// ************************************************************************* //
