/*--------------------------------*- C++ -*----------------------------------*\
| =========                 |                                                 |
| \\      /  F ield         | OpenFOAM: The Open Source CFD Toolbox           |
|  \\    /   O peration     | Version:  2.2.2                                 |
|   \\  /    A nd           | Web:      www.OpenFOAM.org                      |
|    \\/     M anipulation  |                                                 |
\*---------------------------------------------------------------------------*/
FoamFile
{
    version     2.0;
    format      ascii;
    class       polyBoundaryMesh;
    location    "constant/polyMesh";
    object      boundary;
}
// * * * * * * * * * * * * * * * * * * * * * * * * * * * * * * * * * * * * * //

3
(
    walls
    {
        type            wall;
        nFaces          44800;
        startFace       2226176;
    }
    region0_to_wallFilmRegion_cubeFaces
    {
        type            mappedWall;
        nFaces          6144;
        startFace       2270976;
        sampleMode      nearestPatchFace;
        sampleRegion    wallFilmRegion;
        samplePatch     region0_to_wallFilmRegion_cubeFaces;
        offsetMode      nonuniform;
        offsets         nonuniform List<vector> 
6144
(
(-0 -0 -0)
(-0 -2.775557562e-17 -0)
(5.551115123e-17 -2.775557562e-17 -0)
(-0 -1.387778781e-17 1.387778781e-17)
(-0 -2.775557562e-17 -0)
(-5.551115123e-17 -0 -0)
(-0 -2.775557562e-17 -0)
(-5.551115123e-17 -2.775557562e-17 -0)
(1.110223025e-16 -0 -0)
(-0 -0 -0)
(-1.110223025e-16 -0 -0)
(-2.220446049e-16 -2.775557562e-17 -1.387778781e-17)
(1.110223025e-16 -0 -0)
(1.110223025e-16 -0 -0)
(1.110223025e-16 -0 -0)
(-0 -0 -0)
(-0 1.387778781e-17 -0)
(-0 -0 -0)
(5.551115123e-17 -0 -0)
(-0 -0 1.387778781e-17)
(-5.551115123e-17 -0 -0)
(-5.551115123e-17 1.387778781e-17 -0)
(-0 -0 -0)
(-5.551115123e-17 -0 -0)
(1.110223025e-16 1.387778781e-17 -0)
(1.110223025e-16 2.775557562e-17 1.387778781e-17)
(1.110223025e-16 1.387778781e-17 -0)
(-1.110223025e-16 1.387778781e-17 -0)
(1.110223025e-16 1.387778781e-17 -0)
(1.110223025e-16 1.387778781e-17 -0)
(2.220446049e-16 2.775557562e-17 1.387778781e-17)
(-0 1.387778781e-17 -0)
(-0 -5.551115123e-17 -1.387778781e-17)
(5.551115123e-17 -0 -0)
(-5.551115123e-17 -0 -0)
(-0 -0 1.387778781e-17)
(5.551115123e-17 -0 -0)
(-0 -5.551115123e-17 -1.387778781e-17)
(-0 -0 -0)
(5.551115123e-17 -0 -0)
(-0 -5.551115123e-17 -1.387778781e-17)
(-0 2.775557562e-17 -0)
(-1.110223025e-16 -5.551115123e-17 -1.387778781e-17)
(-1.110223025e-16 -0 -1.387778781e-17)
(-1.110223025e-16 -5.551115123e-17 -1.387778781e-17)
(-0 -5.551115123e-17 -1.387778781e-17)
(1.110223025e-16 2.775557562e-17 -0)
(-0 -5.551115123e-17 -1.387778781e-17)
(-1.665334537e-16 -5.551115123e-17 -2.775557562e-17)
(-0 -0 -1.387778781e-17)
(-5.551115123e-17 -2.775557562e-17 -2.775557562e-17)
(1.110223025e-16 2.775557562e-17 -0)
(-5.551115123e-17 -0 -1.387778781e-17)
(-1.665334537e-16 -5.551115123e-17 -2.775557562e-17)
(-0 -0 -1.387778781e-17)
(-2.220446049e-16 -2.775557562e-17 -2.775557562e-17)
(-2.220446049e-16 -5.551115123e-17 -2.775557562e-17)
(-1.110223025e-16 -2.775557562e-17 -0)
(-2.220446049e-16 -5.551115123e-17 -2.775557562e-17)
(-2.220446049e-16 -2.775557562e-17 1.387778781e-17)
(-3.330669074e-16 -5.551115123e-17 -2.775557562e-17)
(-2.220446049e-16 -5.551115123e-17 -2.775557562e-17)
(-0 -2.775557562e-17 -0)
(-2.220446049e-16 -5.551115123e-17 -2.775557562e-17)
(-0 2.775557562e-17 -1.387778781e-17)
(5.551115123e-17 2.775557562e-17 -0)
(-5.551115123e-17 2.775557562e-17 -0)
(-0 2.775557562e-17 1.387778781e-17)
(5.551115123e-17 2.775557562e-17 -0)
(-0 2.775557562e-17 -1.387778781e-17)
(-0 2.775557562e-17 -0)
(5.551115123e-17 2.775557562e-17 -0)
(-0 2.775557562e-17 -1.387778781e-17)
(-0 -0 -0)
(-1.110223025e-16 2.775557562e-17 -1.387778781e-17)
(-1.110223025e-16 -2.775557562e-17 -1.387778781e-17)
(-1.110223025e-16 2.775557562e-17 -1.387778781e-17)
(-0 2.775557562e-17 -1.387778781e-17)
(1.110223025e-16 -0 -0)
(-0 2.775557562e-17 -1.387778781e-17)
(-1.665334537e-16 -8.326672685e-17 -2.775557562e-17)
(-0 -2.775557562e-17 -1.387778781e-17)
(-5.551115123e-17 -8.326672685e-17 -2.775557562e-17)
(1.110223025e-16 -0 -0)
(-5.551115123e-17 -2.775557562e-17 -1.387778781e-17)
(-1.665334537e-16 -8.326672685e-17 -2.775557562e-17)
(-0 -2.775557562e-17 -1.387778781e-17)
(-2.220446049e-16 -8.326672685e-17 -2.775557562e-17)
(-2.220446049e-16 -8.326672685e-17 -2.775557562e-17)
(-1.110223025e-16 -2.775557562e-17 -0)
(-2.220446049e-16 -8.326672685e-17 -2.775557562e-17)
(-2.220446049e-16 -2.775557562e-17 1.387778781e-17)
(-3.330669074e-16 -8.326672685e-17 -2.775557562e-17)
(-2.220446049e-16 -8.326672685e-17 -2.775557562e-17)
(-0 -2.775557562e-17 -0)
(-2.220446049e-16 -8.326672685e-17 -2.775557562e-17)
(-0 -2.775557562e-17 -1.387778781e-17)
(-5.551115123e-17 -0 -0)
(-1.110223025e-16 -0 -0)
(-1.110223025e-16 -5.551115123e-17 -0)
(-5.551115123e-17 -0 -0)
(-0 -2.775557562e-17 -1.387778781e-17)
(-1.110223025e-16 -0 -0)
(5.551115123e-17 -0 -0)
(-0 -2.775557562e-17 -1.387778781e-17)
(1.110223025e-16 5.551115123e-17 1.387778781e-17)
(-1.110223025e-16 -2.775557562e-17 -1.387778781e-17)
(-0 -0 -0)
(-2.220446049e-16 -2.775557562e-17 -1.387778781e-17)
(-0 -2.775557562e-17 -1.387778781e-17)
(1.110223025e-16 5.551115123e-17 1.387778781e-17)
(-0 -2.775557562e-17 -1.387778781e-17)
(5.551115123e-17 -0 -1.387778781e-17)
(5.551115123e-17 -0 -0)
(-0 -2.775557562e-17 -0)
(5.551115123e-17 -0 1.387778781e-17)
(-0 -0 -0)
(5.551115123e-17 -0 -1.387778781e-17)
(-0 -0 -0)
(5.551115123e-17 -2.775557562e-17 -0)
(1.110223025e-16 -0 -1.387778781e-17)
(-1.110223025e-16 -0 -2.775557562e-17)
(-1.110223025e-16 -0 -1.387778781e-17)
(-1.110223025e-16 2.775557562e-17 -1.387778781e-17)
(1.110223025e-16 -0 -1.387778781e-17)
(-1.110223025e-16 -0 -1.387778781e-17)
(-0 -0 -2.775557562e-17)
(-0 -0 -1.387778781e-17)
(-1.665334537e-16 -1.110223025e-16 -2.775557562e-17)
(-0 -8.326672685e-17 -1.387778781e-17)
(-5.551115123e-17 -1.110223025e-16 -2.775557562e-17)
(1.110223025e-16 -2.775557562e-17 -0)
(-5.551115123e-17 -8.326672685e-17 -1.387778781e-17)
(-1.665334537e-16 -1.110223025e-16 -2.775557562e-17)
(-0 -8.326672685e-17 -1.387778781e-17)
(-2.220446049e-16 -1.110223025e-16 -2.775557562e-17)
(-2.220446049e-16 -1.110223025e-16 -2.775557562e-17)
(-1.110223025e-16 -2.775557562e-17 -0)
(-2.220446049e-16 -1.110223025e-16 -2.775557562e-17)
(-2.220446049e-16 -2.775557562e-17 1.387778781e-17)
(-3.330669074e-16 -1.110223025e-16 -2.775557562e-17)
(-2.220446049e-16 -1.110223025e-16 -2.775557562e-17)
(-0 -2.775557562e-17 -0)
(-2.220446049e-16 -1.110223025e-16 -2.775557562e-17)
(-0 -2.775557562e-17 -1.387778781e-17)
(5.551115123e-17 2.775557562e-17 -0)
(-5.551115123e-17 2.775557562e-17 -0)
(-0 -2.775557562e-17 1.387778781e-17)
(5.551115123e-17 2.775557562e-17 -0)
(-0 -2.775557562e-17 -1.387778781e-17)
(-0 2.775557562e-17 -0)
(5.551115123e-17 2.775557562e-17 -0)
(-0 -2.775557562e-17 -1.387778781e-17)
(-0 2.775557562e-17 -0)
(-1.110223025e-16 -2.775557562e-17 -1.387778781e-17)
(-1.110223025e-16 -0 -1.387778781e-17)
(-1.110223025e-16 -2.775557562e-17 -1.387778781e-17)
(-0 -2.775557562e-17 -1.387778781e-17)
(1.110223025e-16 2.775557562e-17 -0)
(-0 -2.775557562e-17 -1.387778781e-17)
(-1.665334537e-16 -1.110223025e-16 -2.775557562e-17)
(-0 -8.326672685e-17 -1.387778781e-17)
(-5.551115123e-17 -1.110223025e-16 -2.775557562e-17)
(1.110223025e-16 -2.775557562e-17 -0)
(-5.551115123e-17 -8.326672685e-17 -1.387778781e-17)
(-1.665334537e-16 -1.110223025e-16 -2.775557562e-17)
(-0 -8.326672685e-17 -1.387778781e-17)
(-2.220446049e-16 -1.110223025e-16 -2.775557562e-17)
(-2.220446049e-16 -1.110223025e-16 -2.775557562e-17)
(-1.110223025e-16 -2.775557562e-17 -0)
(-2.220446049e-16 -1.110223025e-16 -2.775557562e-17)
(-2.220446049e-16 -5.551115123e-17 1.387778781e-17)
(-3.330669074e-16 -1.110223025e-16 -2.775557562e-17)
(-2.220446049e-16 -1.110223025e-16 -2.775557562e-17)
(-0 -2.775557562e-17 -0)
(-2.220446049e-16 -1.110223025e-16 -2.775557562e-17)
(-0 -0 -1.387778781e-17)
(-5.551115123e-17 -5.551115123e-17 -0)
(-1.110223025e-16 -5.551115123e-17 -0)
(-1.110223025e-16 -5.551115123e-17 -0)
(-5.551115123e-17 -5.551115123e-17 -0)
(-0 -0 -1.387778781e-17)
(-1.110223025e-16 -5.551115123e-17 -0)
(5.551115123e-17 -5.551115123e-17 -0)
(-0 -0 -1.387778781e-17)
(1.110223025e-16 2.775557562e-17 1.387778781e-17)
(-1.110223025e-16 -0 -1.387778781e-17)
(-0 2.775557562e-17 -0)
(-2.220446049e-16 -0 -1.387778781e-17)
(-0 -0 -1.387778781e-17)
(1.110223025e-16 2.775557562e-17 1.387778781e-17)
(-0 -0 -1.387778781e-17)
(-0 -5.551115123e-17 -1.387778781e-17)
(-5.551115123e-17 -0 -2.775557562e-17)
(-5.551115123e-17 -0 -2.775557562e-17)
(-5.551115123e-17 -0 -0)
(-1.110223025e-16 -0 -2.775557562e-17)
(5.551115123e-17 -5.551115123e-17 -1.387778781e-17)
(-0 -0 -2.775557562e-17)
(-5.551115123e-17 -0 -2.775557562e-17)
(-0 -5.551115123e-17 -1.387778781e-17)
(-1.110223025e-16 -5.551115123e-17 -2.775557562e-17)
(-1.110223025e-16 -5.551115123e-17 -1.387778781e-17)
(-1.110223025e-16 -0 -1.387778781e-17)
(-0 -5.551115123e-17 -1.387778781e-17)
(-1.110223025e-16 -5.551115123e-17 -1.387778781e-17)
(-0 -5.551115123e-17 -2.775557562e-17)
(-0 -5.551115123e-17 -1.387778781e-17)
(5.551115123e-17 -0 -0)
(-5.551115123e-17 -0 -0)
(-5.551115123e-17 -0 -0)
(-5.551115123e-17 -0 -0)
(-5.551115123e-17 -0 -0)
(5.551115123e-17 -0 -0)
(-1.110223025e-16 -0 -0)
(-0 -0 -0)
(1.110223025e-16 -0 -0)
(-0 -5.551115123e-17 -1.387778781e-17)
(-1.110223025e-16 -0 -0)
(1.110223025e-16 5.551115123e-17 -0)
(-0 -0 -0)
(-1.110223025e-16 -0 -0)
(-0 -5.551115123e-17 -1.387778781e-17)
(-0 -0 -0)
(-5.551115123e-17 -1.110223025e-16 -0)
(-5.551115123e-17 -0 -0)
(-5.551115123e-17 -0 -1.387778781e-17)
(-0 -0 -0)
(-5.551115123e-17 -0 -0)
(-5.551115123e-17 -1.110223025e-16 -0)
(-0 -0 -0)
(-0 -0 -1.387778781e-17)
(-1.110223025e-16 -1.110223025e-16 -0)
(-0 5.551115123e-17 -0)
(-2.220446049e-16 -1.110223025e-16 -0)
(-1.110223025e-16 -5.551115123e-17 -4.163336342e-17)
(-0 -1.110223025e-16 -0)
(-0 -1.110223025e-16 -0)
(-0 5.551115123e-17 -0)
(-0 -1.110223025e-16 -0)
(-0 -0 -0)
(-5.551115123e-17 -5.551115123e-17 -2.775557562e-17)
(-5.551115123e-17 -5.551115123e-17 -2.775557562e-17)
(-5.551115123e-17 -5.551115123e-17 -0)
(-5.551115123e-17 -5.551115123e-17 -2.775557562e-17)
(5.551115123e-17 -0 -0)
(-0 -5.551115123e-17 -2.775557562e-17)
(-1.110223025e-16 -5.551115123e-17 -2.775557562e-17)
(-0 -0 -0)
(-1.110223025e-16 -5.551115123e-17 -2.775557562e-17)
(-1.110223025e-16 -0 -0)
(-0 -0 -1.387778781e-17)
(-0 -0 -0)
(-1.110223025e-16 -0 -0)
(-0 -5.551115123e-17 -2.775557562e-17)
(-0 -0 -0)
(-5.551115123e-17 -5.551115123e-17 -0)
(-5.551115123e-17 -0 -0)
(-5.551115123e-17 -5.551115123e-17 -1.387778781e-17)
(-0 -0 -0)
(-5.551115123e-17 -0 -0)
(-5.551115123e-17 -5.551115123e-17 -0)
(-0 -0 -0)
(-0 -5.551115123e-17 -1.387778781e-17)
(-1.110223025e-16 -5.551115123e-17 -0)
(-0 5.551115123e-17 -0)
(-2.220446049e-16 -5.551115123e-17 -0)
(-1.110223025e-16 -5.551115123e-17 -4.163336342e-17)
(-0 -5.551115123e-17 -0)
(-0 -5.551115123e-17 -0)
(-0 5.551115123e-17 -0)
(-0 -5.551115123e-17 -0)
(-0 -5.551115123e-17 -0)
(-5.551115123e-17 -5.551115123e-17 -2.775557562e-17)
(-5.551115123e-17 -5.551115123e-17 -2.775557562e-17)
(-5.551115123e-17 -5.551115123e-17 -0)
(-5.551115123e-17 -5.551115123e-17 -2.775557562e-17)
(5.551115123e-17 -5.551115123e-17 -0)
(-0 -5.551115123e-17 -2.775557562e-17)
(-1.110223025e-16 -5.551115123e-17 -2.775557562e-17)
(-0 -5.551115123e-17 -0)
(-1.110223025e-16 -1.110223025e-16 -2.775557562e-17)
(-1.110223025e-16 -5.551115123e-17 -0)
(-0 -5.551115123e-17 -1.387778781e-17)
(-0 -5.551115123e-17 -0)
(-1.110223025e-16 -5.551115123e-17 -0)
(-0 -1.110223025e-16 -2.775557562e-17)
(-0 -5.551115123e-17 -0)
(5.551115123e-17 -5.551115123e-17 -0)
(-5.551115123e-17 -1.110223025e-16 -0)
(-5.551115123e-17 -5.551115123e-17 -0)
(-5.551115123e-17 -1.110223025e-16 -0)
(-5.551115123e-17 -1.110223025e-16 -0)
(5.551115123e-17 -5.551115123e-17 -0)
(-1.110223025e-16 -1.110223025e-16 -0)
(-0 -5.551115123e-17 -0)
(1.110223025e-16 -5.551115123e-17 -0)
(-0 -5.551115123e-17 -1.387778781e-17)
(-1.110223025e-16 -5.551115123e-17 -0)
(1.110223025e-16 -5.551115123e-17 -0)
(-0 -5.551115123e-17 -0)
(-1.110223025e-16 -5.551115123e-17 -0)
(-0 -5.551115123e-17 -1.387778781e-17)
(-0 -5.551115123e-17 -0)
(-0 -0 -1.387778781e-17)
(-5.551115123e-17 -5.551115123e-17 -2.775557562e-17)
(-5.551115123e-17 -1.110223025e-16 -2.775557562e-17)
(-5.551115123e-17 -5.551115123e-17 -0)
(-1.110223025e-16 -5.551115123e-17 -2.775557562e-17)
(5.551115123e-17 -0 -1.387778781e-17)
(-0 -5.551115123e-17 -2.775557562e-17)
(-5.551115123e-17 -1.110223025e-16 -2.775557562e-17)
(-0 -0 -1.387778781e-17)
(-1.110223025e-16 -1.110223025e-16 -2.775557562e-17)
(-1.110223025e-16 -0 -1.387778781e-17)
(-1.110223025e-16 -5.551115123e-17 -1.387778781e-17)
(-0 -0 -1.387778781e-17)
(-1.110223025e-16 -0 -1.387778781e-17)
(-0 -1.110223025e-16 -2.775557562e-17)
(-0 -0 -1.387778781e-17)
(-0 -5.551115123e-17 -0)
(-5.551115123e-17 -5.551115123e-17 -2.775557562e-17)
(-5.551115123e-17 -1.110223025e-16 -2.775557562e-17)
(-5.551115123e-17 -5.551115123e-17 -0)
(-5.551115123e-17 -5.551115123e-17 -2.775557562e-17)
(5.551115123e-17 -5.551115123e-17 -0)
(-0 -5.551115123e-17 -2.775557562e-17)
(-1.110223025e-16 -1.110223025e-16 -2.775557562e-17)
(-0 -5.551115123e-17 -0)
(-1.110223025e-16 -5.551115123e-17 -2.775557562e-17)
(-1.110223025e-16 -5.551115123e-17 -0)
(-0 -0 -1.387778781e-17)
(-0 -5.551115123e-17 -0)
(-1.110223025e-16 -5.551115123e-17 -0)
(-0 -5.551115123e-17 -2.775557562e-17)
(-0 -5.551115123e-17 -0)
(-5.551115123e-17 -5.551115123e-17 -0)
(-5.551115123e-17 -1.110223025e-16 -0)
(-5.551115123e-17 -1.110223025e-16 -1.387778781e-17)
(-0 -1.110223025e-16 -0)
(-5.551115123e-17 -1.110223025e-16 -0)
(-5.551115123e-17 -5.551115123e-17 -0)
(-0 -1.110223025e-16 -0)
(-0 -1.110223025e-16 -1.387778781e-17)
(-1.110223025e-16 -5.551115123e-17 -0)
(-0 -0 -0)
(-2.220446049e-16 -5.551115123e-17 -0)
(-1.110223025e-16 -1.110223025e-16 -4.163336342e-17)
(-0 -5.551115123e-17 -0)
(-0 -5.551115123e-17 -0)
(-0 -0 -0)
(-0 -5.551115123e-17 -0)
(-0 -0 -0)
(-5.551115123e-17 5.551115123e-17 -2.775557562e-17)
(-5.551115123e-17 -0 -2.775557562e-17)
(-5.551115123e-17 5.551115123e-17 -0)
(-5.551115123e-17 5.551115123e-17 -2.775557562e-17)
(5.551115123e-17 -0 -0)
(-0 5.551115123e-17 -2.775557562e-17)
(-1.110223025e-16 -0 -2.775557562e-17)
(-0 -0 -0)
(-1.110223025e-16 -5.551115123e-17 -2.775557562e-17)
(-1.110223025e-16 -0 -0)
(-0 -0 -1.387778781e-17)
(-0 -0 -0)
(-1.110223025e-16 -0 -0)
(-0 -5.551115123e-17 -2.775557562e-17)
(-0 -0 -0)
(5.551115123e-17 -0 -0)
(-5.551115123e-17 -1.110223025e-16 -0)
(-5.551115123e-17 -1.110223025e-16 -0)
(-5.551115123e-17 -1.110223025e-16 -0)
(-5.551115123e-17 -1.110223025e-16 -0)
(5.551115123e-17 -0 -0)
(-1.110223025e-16 -1.110223025e-16 -0)
(-0 -1.110223025e-16 -0)
(1.110223025e-16 -0 -0)
(-0 -5.551115123e-17 -1.387778781e-17)
(-1.110223025e-16 -0 -0)
(1.110223025e-16 -0 -0)
(-0 -0 -0)
(-1.110223025e-16 -0 -0)
(-0 -5.551115123e-17 -1.387778781e-17)
(-0 -0 -0)
(-5.551115123e-17 -0 -0)
(-5.551115123e-17 -0 -0)
(-5.551115123e-17 -1.110223025e-16 -1.387778781e-17)
(-0 -0 -0)
(-5.551115123e-17 -0 -0)
(-5.551115123e-17 -0 -0)
(-0 -0 -0)
(-0 -1.110223025e-16 -1.387778781e-17)
(-1.110223025e-16 -0 -0)
(-0 -1.110223025e-16 -0)
(-2.220446049e-16 -0 -0)
(-1.110223025e-16 -2.220446049e-16 -4.163336342e-17)
(-0 -0 -0)
(-0 -0 -0)
(-0 -1.110223025e-16 -0)
(-0 -0 -0)
(5.551115123e-17 -0 -0)
(5.551115123e-17 -0 -0)
(-5.551115123e-17 -1.110223025e-16 -1.387778781e-17)
(-0 -0 -0)
(-0 -0 -0)
(-0 -0 -0)
(-5.551115123e-17 -0 -0)
(-5.551115123e-17 -1.110223025e-16 -1.387778781e-17)
(-1.110223025e-16 -0 -0)
(-0 -0 -0)
(-0 -0 -0)
(-1.110223025e-16 -0 -0)
(-0 -0 -0)
(-0 -0 -0)
(-1.110223025e-16 -0 -0)
(-1.110223025e-16 -0 -0)
(-5.551115123e-17 1.110223025e-16 -0)
(-5.551115123e-17 -1.110223025e-16 -0)
(-5.551115123e-17 -1.110223025e-16 -1.387778781e-17)
(-0 -1.110223025e-16 -0)
(-5.551115123e-17 -1.110223025e-16 -0)
(-5.551115123e-17 1.110223025e-16 -0)
(-0 -1.110223025e-16 -0)
(-0 -1.110223025e-16 -1.387778781e-17)
(-1.110223025e-16 1.110223025e-16 -0)
(-0 -0 -0)
(-2.220446049e-16 1.110223025e-16 -0)
(-1.110223025e-16 -1.110223025e-16 -4.163336342e-17)
(-0 1.110223025e-16 -0)
(-0 1.110223025e-16 -0)
(-0 -0 -0)
(-0 1.110223025e-16 -0)
(1.110223025e-16 1.110223025e-16 2.775557562e-17)
(-5.551115123e-17 -0 -1.387778781e-17)
(-5.551115123e-17 -1.110223025e-16 -2.775557562e-17)
(-5.551115123e-17 1.110223025e-16 -1.387778781e-17)
(-5.551115123e-17 -0 -1.387778781e-17)
(5.551115123e-17 1.110223025e-16 2.775557562e-17)
(-1.665334537e-16 -0 -1.387778781e-17)
(-1.110223025e-16 -1.110223025e-16 -2.775557562e-17)
(-0 1.110223025e-16 2.775557562e-17)
(-0 -1.110223025e-16 -0)
(1.110223025e-16 1.110223025e-16 2.775557562e-17)
(-1.110223025e-16 -1.110223025e-16 -0)
(1.110223025e-16 1.110223025e-16 2.775557562e-17)
(1.110223025e-16 1.110223025e-16 2.775557562e-17)
(-1.110223025e-16 -1.110223025e-16 -0)
(1.110223025e-16 1.110223025e-16 2.775557562e-17)
(-5.551115123e-17 -0 -0)
(-5.551115123e-17 -0 -0)
(-5.551115123e-17 -0 -1.387778781e-17)
(-0 -0 -0)
(-5.551115123e-17 -0 -0)
(-5.551115123e-17 -0 -0)
(-0 -0 -0)
(-0 -0 -1.387778781e-17)
(-1.110223025e-16 -0 -0)
(-0 -0 -0)
(-2.220446049e-16 -0 -0)
(-1.110223025e-16 -1.110223025e-16 -4.163336342e-17)
(-0 -0 -0)
(-0 -0 -0)
(-0 -0 -0)
(-0 -0 -0)
(-5.551115123e-17 -0 -0)
(-5.551115123e-17 1.110223025e-16 -0)
(-5.551115123e-17 1.110223025e-16 -1.387778781e-17)
(-0 1.110223025e-16 -0)
(-5.551115123e-17 1.110223025e-16 -0)
(-5.551115123e-17 -0 -0)
(-0 1.110223025e-16 -0)
(-0 1.110223025e-16 -1.387778781e-17)
(-1.110223025e-16 -0 -0)
(-0 -0 -0)
(-2.220446049e-16 -0 -0)
(-1.110223025e-16 -1.110223025e-16 -4.163336342e-17)
(-0 -0 -0)
(-0 -0 -0)
(-0 -0 -0)
(-0 -0 -0)
(5.551115123e-17 -0 -0)
(5.551115123e-17 -0 -0)
(-5.551115123e-17 -0 -1.387778781e-17)
(-0 -0 -0)
(-0 -0 -0)
(-0 -0 -0)
(-5.551115123e-17 -0 -0)
(-5.551115123e-17 -0 -1.387778781e-17)
(-1.110223025e-16 -0 -0)
(-0 -0 -0)
(-0 -0 -0)
(-1.110223025e-16 -1.110223025e-16 -0)
(-0 -0 -0)
(-0 -0 -0)
(-1.110223025e-16 -0 -0)
(-1.110223025e-16 -0 -0)
(-5.551115123e-17 -0 -0)
(-5.551115123e-17 -0 -0)
(-5.551115123e-17 -0 -1.387778781e-17)
(-0 -0 -0)
(-5.551115123e-17 -0 -0)
(-5.551115123e-17 -0 -0)
(-0 -0 -0)
(-0 -0 -1.387778781e-17)
(-1.110223025e-16 -0 -0)
(-0 1.110223025e-16 -0)
(-2.220446049e-16 -0 -0)
(-1.110223025e-16 -1.110223025e-16 -4.163336342e-17)
(-0 -0 -0)
(-0 -0 -0)
(-0 1.110223025e-16 -0)
(-0 -0 -0)
(-0 -0 -0)
(-0 -0 -1.387778781e-17)
(5.551115123e-17 1.387778781e-17 -1.387778781e-17)
(-5.551115123e-17 -0 -1.387778781e-17)
(-0 -0 -1.387778781e-17)
(-0 -0 -0)
(-0 -0 -1.387778781e-17)
(-0 1.387778781e-17 -1.387778781e-17)
(1.110223025e-16 -0 -0)
(-0 1.387778781e-17 -0)
(-0 -0 -0)
(-0 2.775557562e-17 1.387778781e-17)
(1.110223025e-16 -0 -0)
(1.110223025e-16 -0 -0)
(1.110223025e-16 1.387778781e-17 -0)
(-0 -0 -0)
(-1.110223025e-16 -0 -0)
(-0 -0 -0)
(-1.110223025e-16 -0 -0)
(1.110223025e-16 -1.387778781e-17 1.387778781e-17)
(-0 -0 -1.387778781e-17)
(-0 -0 -1.387778781e-17)
(-0 -0 -1.387778781e-17)
(-1.110223025e-16 -0 -1.387778781e-17)
(-0 -2.775557562e-17 -1.387778781e-17)
(-0 -2.775557562e-17 -1.387778781e-17)
(-0 -0 -1.387778781e-17)
(-1.110223025e-16 -2.775557562e-17 -1.387778781e-17)
(-0 -2.775557562e-17 -2.775557562e-17)
(-0 2.775557562e-17 -1.387778781e-17)
(5.551115123e-17 2.775557562e-17 -0)
(1.110223025e-16 -2.775557562e-17 -1.387778781e-17)
(-0 2.775557562e-17 -1.387778781e-17)
(-1.110223025e-16 -0 -1.387778781e-17)
(-0 -8.326672685e-17 -1.387778781e-17)
(-0 -2.775557562e-17 -1.387778781e-17)
(-0 5.551115123e-17 -1.387778781e-17)
(-1.110223025e-16 -2.775557562e-17 -1.387778781e-17)
(-0 -0 -2.775557562e-17)
(-0 -0 -1.387778781e-17)
(5.551115123e-17 -0 -1.387778781e-17)
(1.110223025e-16 -0 -1.387778781e-17)
(-0 -0 -2.775557562e-17)
(1.110223025e-16 -5.551115123e-17 -1.387778781e-17)
(-0 -0 -0)
(-1.110223025e-16 -0 -0)
(-0 -0 -2.775557562e-17)
(-0 -5.551115123e-17 -0)
(-0 5.551115123e-17 -2.775557562e-17)
(5.551115123e-17 5.551115123e-17 -2.775557562e-17)
(-0 5.551115123e-17 -1.387778781e-17)
(-0 5.551115123e-17 -2.775557562e-17)
(-5.551115123e-17 -5.551115123e-17 -0)
(-0 5.551115123e-17 -2.775557562e-17)
(-5.551115123e-17 5.551115123e-17 -2.775557562e-17)
(1.110223025e-16 -5.551115123e-17 -0)
(-0 -0 -0)
(-1.110223025e-16 -5.551115123e-17 -0)
(-2.220446049e-16 -1.110223025e-16 -2.775557562e-17)
(1.110223025e-16 -5.551115123e-17 -0)
(1.110223025e-16 -5.551115123e-17 -0)
(1.110223025e-16 -0 -0)
(1.110223025e-16 -0 -1.387778781e-17)
(-0 -5.551115123e-17 -0)
(-0 -0 -0)
(-0 -0 -1.387778781e-17)
(5.551115123e-17 5.551115123e-17 -1.387778781e-17)
(-5.551115123e-17 -0 -1.387778781e-17)
(-0 -0 -1.387778781e-17)
(-0 -0 -0)
(-0 -0 -1.387778781e-17)
(-0 5.551115123e-17 -1.387778781e-17)
(1.110223025e-16 -0 -0)
(-0 5.551115123e-17 -0)
(-0 -0 -0)
(-0 1.110223025e-16 1.387778781e-17)
(1.110223025e-16 -0 -0)
(1.110223025e-16 -0 -0)
(1.110223025e-16 5.551115123e-17 -0)
(-0 -0 -0)
(-0 -0 -0)
(-1.110223025e-16 -0 -0)
(-0 -0 -2.775557562e-17)
(1.110223025e-16 -0 -1.387778781e-17)
(-0 5.551115123e-17 -2.775557562e-17)
(1.110223025e-16 5.551115123e-17 -1.387778781e-17)
(5.551115123e-17 -0 -1.387778781e-17)
(1.110223025e-16 -5.551115123e-17 -1.387778781e-17)
(-0 -0 -2.775557562e-17)
(1.110223025e-16 -0 -1.387778781e-17)
(-0 -5.551115123e-17 -0)
(-1.110223025e-16 -0 -0)
(-0 -0 -2.775557562e-17)
(1.110223025e-16 -0 -1.387778781e-17)
(-0 -5.551115123e-17 -2.775557562e-17)
(1.110223025e-16 -0 -1.387778781e-17)
(-0 1.110223025e-16 -0)
(-1.110223025e-16 1.110223025e-16 -0)
(-0 -0 -0)
(-0 -0 -0)
(-0 -1.110223025e-16 -0)
(-1.110223025e-16 -0 -0)
(-5.551115123e-17 -2.220446049e-16 -2.775557562e-17)
(1.110223025e-16 -0 1.387778781e-17)
(-0 1.110223025e-16 -0)
(-1.110223025e-16 1.110223025e-16 -0)
(-0 1.110223025e-16 -0)
(-1.110223025e-16 1.110223025e-16 -0)
(-0 1.110223025e-16 -0)
(-0 1.110223025e-16 -0)
(-0 -0 -0)
(-0 -1.110223025e-16 -0)
(-0 1.110223025e-16 -2.775557562e-17)
(5.551115123e-17 1.110223025e-16 -2.775557562e-17)
(-0 1.110223025e-16 -1.387778781e-17)
(-0 1.110223025e-16 -2.775557562e-17)
(-5.551115123e-17 -1.110223025e-16 -0)
(-0 1.110223025e-16 -2.775557562e-17)
(-5.551115123e-17 1.110223025e-16 -2.775557562e-17)
(1.110223025e-16 -1.110223025e-16 -0)
(-0 -0 -0)
(-1.110223025e-16 -1.110223025e-16 -0)
(-2.220446049e-16 -2.220446049e-16 -2.775557562e-17)
(1.110223025e-16 -1.110223025e-16 -0)
(1.110223025e-16 -1.110223025e-16 -0)
(1.110223025e-16 -0 -0)
(-1.110223025e-16 -0 -0)
(-0 -1.110223025e-16 -0)
(-0 -0 -0)
(-0 -0 -0)
(5.551115123e-17 1.387778781e-17 -0)
(-0 -0 -0)
(-5.551115123e-17 -0 -0)
(-5.551115123e-17 -0 -0)
(-0 -0 -0)
(-0 1.387778781e-17 -0)
(-0 -0 -0)
(-1.110223025e-16 -2.775557562e-17 -2.775557562e-17)
(1.110223025e-16 -0 -0)
(-1.110223025e-16 -1.387778781e-17 -2.775557562e-17)
(1.110223025e-16 -0 -0)
(1.110223025e-16 -0 -0)
(-1.110223025e-16 -2.775557562e-17 -2.775557562e-17)
(-0 -0 -0)
(-5.551115123e-17 1.387778781e-17 -1.387778781e-17)
(-0 -0 -0)
(-5.551115123e-17 1.387778781e-17 -1.387778781e-17)
(1.110223025e-16 -1.387778781e-17 1.387778781e-17)
(-0 -0 -1.387778781e-17)
(-0 -0 -1.387778781e-17)
(-0 -0 -1.387778781e-17)
(-1.110223025e-16 -0 -0)
(-0 -2.775557562e-17 -1.387778781e-17)
(-0 -2.775557562e-17 -1.387778781e-17)
(-0 -0 -1.387778781e-17)
(-1.110223025e-16 -2.775557562e-17 -0)
(-0 -0 -1.387778781e-17)
(-0 -0 -0)
(5.551115123e-17 5.551115123e-17 -0)
(1.110223025e-16 -2.775557562e-17 -1.387778781e-17)
(-0 -0 -1.387778781e-17)
(-1.110223025e-16 -2.775557562e-17 -0)
(-0 -8.326672685e-17 -1.387778781e-17)
(-0 -2.775557562e-17 -1.387778781e-17)
(-0 2.775557562e-17 -1.387778781e-17)
(-1.110223025e-16 -0 -0)
(-0 -2.775557562e-17 -1.387778781e-17)
(-0 -0 -0)
(5.551115123e-17 -0 -0)
(1.110223025e-16 -5.551115123e-17 -0)
(-0 -0 -0)
(1.110223025e-16 -5.551115123e-17 -0)
(-0 -0 1.387778781e-17)
(-1.110223025e-16 -0 -0)
(-0 -0 -0)
(-0 5.551115123e-17 1.387778781e-17)
(-0 5.551115123e-17 -0)
(5.551115123e-17 5.551115123e-17 -0)
(-0 5.551115123e-17 -0)
(-5.551115123e-17 5.551115123e-17 -0)
(-5.551115123e-17 5.551115123e-17 1.387778781e-17)
(-0 5.551115123e-17 -0)
(-5.551115123e-17 5.551115123e-17 -0)
(1.110223025e-16 5.551115123e-17 1.387778781e-17)
(1.110223025e-16 5.551115123e-17 2.775557562e-17)
(1.110223025e-16 5.551115123e-17 1.387778781e-17)
(-1.110223025e-16 -5.551115123e-17 1.387778781e-17)
(1.110223025e-16 5.551115123e-17 1.387778781e-17)
(1.110223025e-16 5.551115123e-17 1.387778781e-17)
(2.220446049e-16 5.551115123e-17 2.775557562e-17)
(1.110223025e-16 -0 -0)
(-0 5.551115123e-17 1.387778781e-17)
(-0 -0 -0)
(-0 -0 -0)
(5.551115123e-17 5.551115123e-17 -0)
(-0 -0 -0)
(-5.551115123e-17 -0 -0)
(-5.551115123e-17 -0 -0)
(-0 -0 -0)
(-0 5.551115123e-17 -0)
(-0 -0 -0)
(-1.110223025e-16 -1.110223025e-16 -2.775557562e-17)
(1.110223025e-16 -0 -0)
(-1.110223025e-16 -5.551115123e-17 -2.775557562e-17)
(1.110223025e-16 -0 -0)
(1.110223025e-16 -0 -0)
(-1.110223025e-16 -1.110223025e-16 -2.775557562e-17)
(-0 -0 -0)
(-0 -0 1.387778781e-17)
(-1.110223025e-16 -0 -0)
(-0 -0 -0)
(1.110223025e-16 -0 -0)
(-0 5.551115123e-17 -0)
(1.110223025e-16 5.551115123e-17 -0)
(5.551115123e-17 -0 -0)
(1.110223025e-16 -0 -0)
(-0 -5.551115123e-17 -0)
(1.110223025e-16 -5.551115123e-17 -0)
(-0 -5.551115123e-17 1.387778781e-17)
(-1.110223025e-16 -5.551115123e-17 -0)
(-0 -0 -0)
(1.110223025e-16 -0 -0)
(-0 -5.551115123e-17 -0)
(1.110223025e-16 -0 -0)
(-0 1.110223025e-16 1.387778781e-17)
(-1.110223025e-16 -0 -0)
(5.551115123e-17 1.110223025e-16 2.775557562e-17)
(-2.220446049e-16 -1.110223025e-16 -2.775557562e-17)
(-0 1.110223025e-16 1.387778781e-17)
(-1.110223025e-16 1.110223025e-16 -0)
(-0 -1.110223025e-16 1.387778781e-17)
(-1.110223025e-16 -1.110223025e-16 -2.775557562e-17)
(-0 1.110223025e-16 1.387778781e-17)
(-1.110223025e-16 1.110223025e-16 -0)
(-0 1.110223025e-16 1.387778781e-17)
(-1.110223025e-16 1.110223025e-16 -0)
(5.551115123e-17 2.220446049e-16 2.775557562e-17)
(-2.220446049e-16 -1.110223025e-16 -2.775557562e-17)
(-0 -0 1.387778781e-17)
(-0 1.110223025e-16 1.387778781e-17)
(-0 1.110223025e-16 -0)
(5.551115123e-17 1.110223025e-16 -0)
(-0 1.110223025e-16 -0)
(-5.551115123e-17 1.110223025e-16 -0)
(-5.551115123e-17 1.110223025e-16 1.387778781e-17)
(-0 1.110223025e-16 -0)
(-5.551115123e-17 1.110223025e-16 -0)
(1.110223025e-16 1.110223025e-16 1.387778781e-17)
(1.110223025e-16 1.110223025e-16 2.775557562e-17)
(1.110223025e-16 1.110223025e-16 1.387778781e-17)
(-1.110223025e-16 -1.110223025e-16 1.387778781e-17)
(1.110223025e-16 1.110223025e-16 1.387778781e-17)
(1.110223025e-16 1.110223025e-16 1.387778781e-17)
(2.220446049e-16 1.110223025e-16 2.775557562e-17)
(-1.110223025e-16 -0 -0)
(-0 1.110223025e-16 1.387778781e-17)
(-0 -1.387778781e-17 2.775557562e-17)
(5.551115123e-17 -0 -0)
(-0 1.387778781e-17 -0)
(5.551115123e-17 -0 -0)
(5.551115123e-17 -0 -0)
(-0 -1.387778781e-17 2.775557562e-17)
(-0 -0 -0)
(-5.551115123e-17 1.387778781e-17 -0)
(-0 -1.387778781e-17 2.775557562e-17)
(-1.110223025e-16 -1.387778781e-17 -5.551115123e-17)
(-1.110223025e-16 -1.387778781e-17 2.775557562e-17)
(1.110223025e-16 -1.387778781e-17 -5.551115123e-17)
(-1.110223025e-16 -1.387778781e-17 2.775557562e-17)
(-0 -1.387778781e-17 2.775557562e-17)
(-1.110223025e-16 -1.387778781e-17 -5.551115123e-17)
(-0 -1.387778781e-17 2.775557562e-17)
(-0 -1.387778781e-17 -0)
(-0 -1.387778781e-17 -0)
(-0 -1.387778781e-17 -0)
(-0 -1.387778781e-17 -0)
(-0 -0 -0)
(-0 -0 -0)
(-0 -0 -0)
(-0 -0 -0)
(-0 -2.775557562e-17 -0)
(-0 2.775557562e-17 -0)
(-0 -0 -0)
(-0 -5.551115123e-17 -0)
(-0 -2.775557562e-17 -0)
(-0 -0 -0)
(5.551115123e-17 2.775557562e-17 -0)
(-0 -5.551115123e-17 -0)
(-0 -0 -0)
(-0 -0 -0)
(-0 -2.775557562e-17 -0)
(-0 -2.775557562e-17 -0)
(-0 -0 -0)
(-0 -5.551115123e-17 -0)
(-0 2.775557562e-17 -0)
(-0 -2.775557562e-17 -0)
(5.551115123e-17 -0 -0)
(-0 -0 -0)
(-0 5.551115123e-17 -0)
(-0 -5.551115123e-17 -0)
(-5.551115123e-17 -0 -5.551115123e-17)
(-0 -5.551115123e-17 2.775557562e-17)
(-0 5.551115123e-17 -0)
(-0 -0 -5.551115123e-17)
(5.551115123e-17 -0 -0)
(-5.551115123e-17 -5.551115123e-17 -0)
(-0 -0 -0)
(5.551115123e-17 -0 -0)
(-0 -0 -5.551115123e-17)
(-0 -0 -0)
(5.551115123e-17 -5.551115123e-17 -0)
(-0 -0 -5.551115123e-17)
(-0 5.551115123e-17 2.775557562e-17)
(-1.110223025e-16 -0 -5.551115123e-17)
(-1.110223025e-16 -5.551115123e-17 -0)
(-1.110223025e-16 -0 -5.551115123e-17)
(-0 -0 -5.551115123e-17)
(1.110223025e-16 5.551115123e-17 2.775557562e-17)
(-0 -5.551115123e-17 -0)
(-0 -0 -5.551115123e-17)
(-0 -5.551115123e-17 2.775557562e-17)
(5.551115123e-17 -0 -0)
(-0 5.551115123e-17 -0)
(5.551115123e-17 -0 -0)
(5.551115123e-17 -0 -0)
(-0 -5.551115123e-17 2.775557562e-17)
(-0 -0 -0)
(-5.551115123e-17 5.551115123e-17 -0)
(-0 -5.551115123e-17 2.775557562e-17)
(-1.110223025e-16 -5.551115123e-17 -5.551115123e-17)
(-1.110223025e-16 -5.551115123e-17 2.775557562e-17)
(1.110223025e-16 -5.551115123e-17 -5.551115123e-17)
(-1.110223025e-16 -5.551115123e-17 2.775557562e-17)
(-0 -5.551115123e-17 2.775557562e-17)
(-1.110223025e-16 -5.551115123e-17 -5.551115123e-17)
(-0 -5.551115123e-17 2.775557562e-17)
(-5.551115123e-17 -0 -5.551115123e-17)
(-0 -0 2.775557562e-17)
(-0 5.551115123e-17 -0)
(-0 5.551115123e-17 -0)
(-0 -5.551115123e-17 -0)
(-0 -0 -0)
(5.551115123e-17 -0 -0)
(-0 5.551115123e-17 -0)
(-0 5.551115123e-17 -0)
(-0 5.551115123e-17 -0)
(-5.551115123e-17 -0 -5.551115123e-17)
(-0 -0 2.775557562e-17)
(-0 -0 -0)
(-0 -0 -0)
(-0 5.551115123e-17 -0)
(-0 -5.551115123e-17 -0)
(-5.551115123e-17 -0 -5.551115123e-17)
(-0 -0 2.775557562e-17)
(-0 -0 2.775557562e-17)
(-2.220446049e-16 -1.110223025e-16 -5.551115123e-17)
(-5.551115123e-17 -1.110223025e-16 -5.551115123e-17)
(-0 -1.110223025e-16 2.775557562e-17)
(-5.551115123e-17 -1.110223025e-16 -0)
(-1.110223025e-16 1.110223025e-16 -5.551115123e-17)
(-5.551115123e-17 -1.110223025e-16 -5.551115123e-17)
(-0 -1.110223025e-16 2.775557562e-17)
(-5.551115123e-17 -0 -5.551115123e-17)