/*--------------------------------*- C++ -*----------------------------------*\
| =========                 |                                                 |
| \\      /  F ield         | OpenFOAM: The Open Source CFD Toolbox           |
|  \\    /   O peration     | Version:  2.2.2                                 |
|   \\  /    A nd           | Web:      www.OpenFOAM.org                      |
|    \\/     M anipulation  |                                                 |
\*---------------------------------------------------------------------------*/
FoamFile
{
    version     2.0;
    format      ascii;
    class       dictionary;
    location    "constant";
    object      thermophysicalProperties;
}
// * * * * * * * * * * * * * * * * * * * * * * * * * * * * * * * * * * * * * //

gasThermoTypes
{
    constant
    {
        type            hePsiThermo;
        mixture         pureMixture;
        transport       const;
        thermo          hConst;
        equationOfState perfectGas;
        specie          specie;
        energy          sensibleEnthalpy;
    }

    janaf
    {
        type            hePsiThermo;
        mixture         pureMixture;
        transport       sutherland;
        thermo          janaf;
        equationOfState perfectGas;
        specie          specie;
        energy          sensibleEnthalpy;
    }
}

thermoType
{
    ${:gasThermoTypes.constant};
}

mixture
{
    specie
    {
        nMoles      1;
        molWeight   28.9;
    }
    thermodynamics
    {
        Cp          1000;
        Hf          0;
    }
    transport
    {
        mu          1.8e-05;
        Pr          0.7;
    }
}


// ************************************************************************* //
