/*--------------------------------*- C++ -*----------------------------------*\
| =========                 |                                                 |
| \\      /  F ield         | OpenFOAM: The Open Source CFD Toolbox           |
|  \\    /   O peration     | Version:  2.2.2                                 |
|   \\  /    A nd           | Web:      www.OpenFOAM.org                      |
|    \\/     M anipulation  |                                                 |
\*---------------------------------------------------------------------------*/
FoamFile
{
    version     2.0;
    format      ascii;
    class       polyBoundaryMesh;
    location    "constant/polyMesh";
    object      boundary;
}
// * * * * * * * * * * * * * * * * * * * * * * * * * * * * * * * * * * * * * //

5
(
    lowerWall
    {
        type            wall;
        nFaces          1;
        startFace       79;
    }
    upperWall
    {
        type            wall;
        nFaces          1;
        startFace       80;
    }
    front
    {
        type            cyclic;
        nFaces          80;
        startFace       81;
        matchTolerance  0.0001;
        neighbourPatch  back;
    }
    back
    {
        type            cyclic;
        nFaces          80;
        startFace       161;
        matchTolerance  0.0001;
        neighbourPatch  front;
    }
    defaultFaces
    {
        type            empty;
        nFaces          160;
        startFace       241;
    }
)

// ************************************************************************* //
