/*--------------------------------*- C++ -*----------------------------------*\
| =========                 |                                                 |
| \\      /  F ield         | OpenFOAM: The Open Source CFD Toolbox           |
|  \\    /   O peration     | Version:  2.2.2                                 |
|   \\  /    A nd           | Web:      www.OpenFOAM.org                      |
|    \\/     M anipulation  |                                                 |
\*---------------------------------------------------------------------------*/
FoamFile
{
    version     2.0;
    format      ascii;
    class       dictionary;
    object      blockMeshDict;
}
// * * * * * * * * * * * * * * * * * * * * * * * * * * * * * * * * * * * * * //

convertToMeters 1;

vertices
(
    (0 0 0)
    (1 0 0)
    (1 1 0)
    (0 1 0)
    (0 0 1)
    (1 0 1)
    (1 1 1)
    (0 1 1)
);

blocks
(
    hex (0 1 2 3 4 5 6 7) (9 9 14) simpleGrading (1 1 1)
);

edges
(
);

boundary
(
    stationaryWalls
    {
        type patch;
        faces
        (
            (0 3 2 1)
            (2 6 5 1)
            (1 5 4 0)
            (3 7 6 2)
            (0 4 7 3)
            (4 5 6 7)
        );
    }
    movingBlock
    {
        type patch;
        faces ();
    }
);

mergePatchPairs
(
);

// ************************************************************************* //
