/*--------------------------------*- C++ -*----------------------------------*\
| =========                 |                                                 |
| \\      /  F ield         | OpenFOAM: The Open Source CFD Toolbox           |
|  \\    /   O peration     | Version:  2.2.2                                 |
|   \\  /    A nd           | Web:      www.OpenFOAM.org                      |
|    \\/     M anipulation  |                                                 |
\*---------------------------------------------------------------------------*/
FoamFile
{
    version     2.0;
    format      ascii;
    class       dictionary;
    location    "system/wallFilmRegion";
    object      fvSolution;
}
// * * * * * * * * * * * * * * * * * * * * * * * * * * * * * * * * * * * * * //

solvers
{
    "(Uf|hf|deltaf\*rhof)"
    {
        solver          PBiCG;
        preconditioner  DILU;
        tolerance       1e-10;
        relTol          0;
    }
    deltaf
    {
        solver          PBiCG; // PCG;
        preconditioner  DILU; // DIC;
        tolerance       1e-10;
        relTol          0;
    }
}


PISO
{
    momentumPredictor  true;
    nCorr           1;
    nNonOrthCorr    0;
}


relaxationFactors
{
    fields
    {
    }
    equations
    {
    }
}

// ************************************************************************* //
