/*--------------------------------*- C++ -*----------------------------------*\
| =========                 |                                                 |
| \\      /  F ield         | OpenFOAM: The Open Source CFD Toolbox           |
|  \\    /   O peration     | Version:  2.2.2                                 |
|   \\  /    A nd           | Web:      www.OpenFOAM.org                      |
|    \\/     M anipulation  |                                                 |
\*---------------------------------------------------------------------------*/
FoamFile
{
    version     2.0;
    format      ascii;
    class       dictionary;
    location    "constant";
    object      reactingCloud1Properties;
}
// * * * * * * * * * * * * * * * * * * * * * * * * * * * * * * * * * * * * * //

solution
{
    active          true;
    coupled         true;
    transient       yes;
    cellValueSourceCorrection on;

    sourceTerms
    {
        schemes
        {
            rho             explicit 1;
            U               explicit 1;
            Yi              explicit 1;
            h               explicit 1;
            radiation       explicit 1;
        }
    }

    interpolationSchemes
    {
        rho             cell;
        U               cellPoint;
        thermo:mu       cell;
        T               cell;
        Cp              cell;
        kappa           cell;
        p               cell;
    }

    integrationSchemes
    {
        U               Euler;
        T               analytical;
    }
}


constantProperties
{
    rho0            1000;
    T0              300;
    Cp0             4100;

    youngsModulus   1e9;
    poissonsRatio   0.35;

    epsilon0        1;
    f0              0.5;

    Pr              0.7;
    Tvap            273;
    Tbp             373;
    LDevol          0;
    hRetentionCoeff 1;

    constantVolume  false;
}


subModels
{
    particleForces
    {
        sphereDrag;
        gravity;
    }

    injectionModels
    {
        model1
        {
            type            reactingMultiphaseLookupTableInjection;
            massTotal       1e-2;
            parcelBasisType mass;
            SOI             0.5;
            inputFile       "parcelInjectionProperties";
            duration        1.0;
            parcelsPerSecond 250;
        }
    }

    dispersionModel none;

    patchInteractionModel localInteraction;

    heatTransferModel RanzMarshall;

    compositionModel singleMixtureFraction;

    phaseChangeModel liquidEvaporation;

    devolatilisationModel none;

    surfaceReactionModel none;

    surfaceFilmModel none;

    radiation       off;

    localInteractionCoeffs
    {
        patches
        (
            "(walls|cyc.*)"
            {
                type        rebound;
            }
        );
    }

    RanzMarshallCoeffs
    {
        BirdCorrection  true;
    }

    singleMixtureFractionCoeffs
    {
        phases
        (
            gas
            {
            }
            liquid
            {
                H2O         1;
            }
            solid
            {
            }
        );
        YGasTot0        0;
        YLiquidTot0     1;
        YSolidTot0      0;
    }

    liquidEvaporationCoeffs
    {
        enthalpyTransfer enthalpyDifference;

        activeLiquids   ( H2O );
    }
}


cloudFunctions
{
    patchPostProcessing
    {
        maxStoredParcels 20;

        patches
        (
            cycLeft_half0
            cycLeft_half1
        );
    }

    facePostProcessing
    {
        surfaceFormat   vtk;
        resetOnWrite    no;
        log             yes;

        faceZones
        (
            cycLeft
        );
    }
}


// ************************************************************************* //
