/*--------------------------------*- C++ -*----------------------------------*\
| =========                 |                                                 |
| \\      /  F ield         | OpenFOAM: The Open Source CFD Toolbox           |
|  \\    /   O peration     | Version:  2.2.2                                 |
|   \\  /    A nd           | Web:      www.OpenFOAM.org                      |
|    \\/     M anipulation  |                                                 |
\*---------------------------------------------------------------------------*/
FoamFile
{
    version     2.0;
    format      ascii;
    class       dictionary;
    object      fvSolution;
}
// * * * * * * * * * * * * * * * * * * * * * * * * * * * * * * * * * * * * * //

solvers
{
    p
    {
        solver           GAMG;
        tolerance        1e-6;
        relTol           0.1;

        smoother         GaussSeidel;
        nPreSweeps       0;
        nPostSweeps      2;

        cacheAgglomeration true;

        nCellsInCoarsestLevel 50;//10;
        agglomerator     faceAreaPair;
        mergeLevels      1;
    };

    pFinal
    {
        solver           GAMG;
        tolerance        1e-6;
        relTol           0;

        smoother         GaussSeidel;
        nPreSweeps       0;
        nPostSweeps      2;

        cacheAgglomeration true;

        nCellsInCoarsestLevel 50;//10;
        agglomerator     faceAreaPair;
        mergeLevels      1;
    };

    U
    {
        solver           PBiCG;
        preconditioner   DILU;
        tolerance        1e-08;
        relTol           0;
    };

    UFinal
    {
        solver           PBiCG;
        preconditioner   DILU;
        tolerance        1e-08;
        relTol           0;
    };

    k
    {
        solver           PBiCG;
        preconditioner   DILU;
        tolerance        1e-07;
        relTol           0;
    };

    B
    {
        solver           PBiCG;
        preconditioner   DILU;
        tolerance        1e-07;
        relTol           0;
    };

    nuTilda
    {
        solver           PBiCG;
        preconditioner   DILU;
        tolerance        1e-07;
        relTol           0;
    };
}

PISO
{
    nCorrectors     2;
    nNonOrthogonalCorrectors 1;
}

PIMPLE
{
    nCorrectors     2;
    nNonOrthogonalCorrectors 1;
}

relaxationFactors
{
    "U.*"               1;
    "nuTilda.*"         1;
}


// ************************************************************************* //
