/*--------------------------------*- C++ -*----------------------------------*\
| =========                 |                                                 |
| \\      /  F ield         | OpenFOAM: The Open Source CFD Toolbox           |
|  \\    /   O peration     | Version:  2.2.2                                 |
|   \\  /    A nd           | Web:      www.OpenFOAM.org                      |
|    \\/     M anipulation  |                                                 |
\*---------------------------------------------------------------------------*/
FoamFile
{
    version     2.0;
    format      ascii;
    class       dictionary;
    object      changeDictionaryDict;
}
// * * * * * * * * * * * * * * * * * * * * * * * * * * * * * * * * * * * * * //

dictionaryReplacement
{
    boundary
    {
        minY
        {
            type            patch;
        }
        minZ
        {
            type            patch;
        }
        maxZ
        {
            type            patch;
        }
    }

    T
    {
        internalField   uniform 300;


        boundaryField
        {
            ".*"
            {
                type            zeroGradient;
                value           uniform 300;
            }
            "heater_to_.*"
            {
                type            compressible::turbulentTemperatureCoupledBaffleMixed;
                neighbourFieldName T;
                kappa           solidThermo;
                kappaName       none;
                value           uniform 300;
            }
            minY
            {
                type            fixedValue;
                value           uniform 500;
            }
        }
    }

    Ypmma
    {
        internalField   uniform 0.5;


        boundaryField
        {
            ".*"
            {
                type            calculated;
                value           uniform 0.5;
            }
        }

    }

    Ychar
    {
        internalField   uniform 0.5;

        boundaryField
        {
            ".*"
            {
                type            calculated;
                value           uniform 0.5;
            }
        }
    }

}

// ************************************************************************* //
