/*--------------------------------*- C++ -*----------------------------------*\
| =========                 |                                                 |
| \\      /  F ield         | OpenFOAM: The Open Source CFD Toolbox           |
|  \\    /   O peration     | Version:  2.2.2                                 |
|   \\  /    A nd           | Web:      www.OpenFOAM.org                      |
|    \\/     M anipulation  |                                                 |
\*---------------------------------------------------------------------------*/
FoamFile
{
    version     2.0;
    format      ascii;
    class       dictionary;
    location    "system";
    object      fvSchemes;
}
// * * * * * * * * * * * * * * * * * * * * * * * * * * * * * * * * * * * * * //

ddtSchemes
{
    default         localEuler rDeltaT;
}

gradSchemes
{
    default         Gauss linear;
}

divSchemes
{
    default         none;

    div(phi,U)      Gauss upwind;
    div(phi,Yi_h)   Gauss upwind;
    div(phi,K)      Gauss upwind;
    div(phi,epsilon) Gauss upwind;
    div(phi,k)      Gauss upwind;
    div((muEff*dev2(T(grad(U))))) Gauss linear;
}

laplacianSchemes
{
    default         Gauss linear orthogonal;
    laplacian(muEff,U) Gauss linear orthogonal;
    laplacian(mut,U) Gauss linear orthogonal;
    laplacian(DkEff,k) Gauss linear orthogonal;
    laplacian(DepsilonEff,epsilon) Gauss linear orthogonal;
    laplacian((rho*(1|A(U))),p) Gauss linear orthogonal;
    laplacian(alphaEff,h) Gauss linear orthogonal;
}

interpolationSchemes
{
    default         linear;
}

snGradSchemes
{
    default         orthogonal;
}

fluxRequired
{
    default         no;
    p;
}


// ************************************************************************* //
