/*--------------------------------*- C++ -*----------------------------------*\
| =========                 |                                                 |
| \\      /  F ield         | OpenFOAM: The Open Source CFD Toolbox           |
|  \\    /   O peration     | Version:  2.2.2                                 |
|   \\  /    A nd           | Web:      www.OpenFOAM.org                      |
|    \\/     M anipulation  |                                                 |
\*---------------------------------------------------------------------------*/
FoamFile
{
    version     2.0;
    format      ascii;
    class       dictionary;
    location    "constant";
    object      thermophysicalProperties;
}
// * * * * * * * * * * * * * * * * * * * * * * * * * * * * * * * * * * * * * //

// thermoType hePsiThermo<pureMixture<const<hConst<perfectGas<specie>>,sensibleEnthalpy>>>;

thermoType
{
    type                heRhoThermo;
    mixture             pureMixture;
    transport           const;
    thermo              hConst;
    energy              sensibleEnthalpy;
    equationOfState     perfectGas;
    specie              specie;
}

pRef            100000;

mixture
{
    specie
    {
        nMoles          1;
        molWeight       28.9;
    }
    thermodynamics
    {
        Cp              1000;
        Hf              0;
    }
    transport
    {
        mu              1.8e-05;
        Pr              0.7;
    }
}


// ************************************************************************* //
