/*--------------------------------*- C++ -*----------------------------------*\
| =========                 |                                                 |
| \\      /  F ield         | OpenFOAM: The Open Source CFD Toolbox           |
|  \\    /   O peration     | Version:  2.2.2                                 |
|   \\  /    A nd           | Web:      www.OpenFOAM.org                      |
|    \\/     M anipulation  |                                                 |
\*---------------------------------------------------------------------------*/
FoamFile
{
    version     2.0;
    format      ascii;
    class       dictionary;
    object      fvSchemes;
}
// * * * * * * * * * * * * * * * * * * * * * * * * * * * * * * * * * * * * * //

ddtSchemes
{
    default              Euler;
}

interpolationSchemes
{
    default              linear;
}

divSchemes
{
    default              none;
    div(rhoPhi,U)        Gauss linearUpwind grad(U);
    div(phi,omega)       Gauss linearUpwind grad(omega);
    div(phi,k)           Gauss linearUpwind grad(k);
    div(phi,alpha)       Gauss vanLeer;
    div(phirb,alpha)     Gauss interfaceCompression;
    div((muEff*dev(T(grad(U))))) Gauss linear;
}

gradSchemes
{
    default              Gauss linear;
}

laplacianSchemes
{
    default              Gauss linear limited corrected 0.5;
}

snGradSchemes
{
    default              none;
    snGrad(pd)           limited corrected 0.5;
    snGrad(rho)          limited corrected 0.5;
    snGrad(alpha1)       limited corrected 0.5;
}

fluxRequired
{
    default              none;
    p_rgh;
    pcorr;
    alpha1;
}

// ************************************************************************* //
