/*--------------------------------*- C++ -*----------------------------------*\
| =========                 |                                                 |
| \\      /  F ield         | OpenFOAM: The Open Source CFD Toolbox           |
|  \\    /   O peration     | Version:  2.2.x                                 |
|   \\  /    A nd           | Web:      www.OpenFOAM.org                      |
|    \\/     M anipulation  |                                                 |
\*---------------------------------------------------------------------------*/
FoamFile
{
    version     2.0;
    format      binary;
    class       volVectorField;
    object      Uc;
}
// * * * * * * * * * * * * * * * * * * * * * * * * * * * * * * * * * * * * * //

dimensions      [0 1 -1 0 0 0 0];

internalField   uniform (0 0 0);

boundaryField
{
    walls
    {
        type            fixedValue;
        value           uniform (0 0 0);
    }

    top
    {
        type            pressureInletOutletVelocity;
        phi             phic;
        inletValue      uniform (0 0 0);
        value           uniform (0 0 0);
    }

    bottom
    {
        type            interstitialInletVelocity;
        inletVelocity   uniform (0 0 1.875);
        value           uniform (0 0 1.875);
        phi             phic;
        alpha           alphac;
    }

    frontAndBack
    {
        type            symmetryPlane;
    }
}


// ************************************************************************* //
