/*--------------------------------*- C++ -*----------------------------------*\
| =========                 |                                                 |
| \\      /  F ield         | OpenFOAM: The Open Source CFD Toolbox           |
|  \\    /   O peration     | Version:  2.2.2                                 |
|   \\  /    A nd           | Web:      www.OpenFOAM.org                      |
|    \\/     M anipulation  |                                                 |
\*---------------------------------------------------------------------------*/
FoamFile
{
    version     2.0;
    format      ascii;
    class       dictionary;
    location    "system";
    object      fvSchemes;
}
// * * * * * * * * * * * * * * * * * * * * * * * * * * * * * * * * * * * * * //

ddtSchemes
{
    default         Euler;
}

gradSchemes
{
    default         Gauss linear;
    grad(p)         Gauss linear;
}

divSchemes
{
    default         none;

    div(phi,U)      Gauss limitedLinearV 1;
    div(phi,K)      Gauss limitedLinear 1;
    div(phid,p)     Gauss limitedLinear 1;
    div(phi,k)      Gauss limitedLinear 1;
    div(phi,epsilon) Gauss limitedLinear 1;

    div(phiXi,Xi)   Gauss limitedLinear 1;
    div(phiSt,b)    Gauss limitedLinear01 1;

    div(phi,ft_b_ha_hau) Gauss multivariateSelection
    {
        ft              limitedLinear01 1;
        b               limitedLinear01 1;
        Xi              limitedLinear 1;
        ha              limitedLinear 1;
        hau             limitedLinear 1;
    };

    div((Su*grad(b)))               Gauss linear;
    div((U+((Su*Xi)*grad(b))))      Gauss linear;
    div((muEff*dev2(T(grad(U)))))   Gauss linear;
    div(U)                          Gauss linear;
}

laplacianSchemes
{
    default         none;
    laplacian(muEff,U) Gauss linear limited corrected 0.333;
    laplacian(DkEff,k) Gauss linear limited corrected 0.333;
    laplacian(DepsilonEff,epsilon) Gauss linear limited corrected 0.333;
    laplacian((rho*inv((((1)*A(U))+tDragDcu))),p) Gauss linear limited corrected 0.333;
    laplacian(Db,b) Gauss linear limited corrected 0.333;
    laplacian(Db,ft) Gauss linear limited corrected 0.333;
    laplacian(Db,ha) Gauss linear limited corrected 0.333;
    laplacian(Db,hau) Gauss linear limited corrected 0.333;
}

interpolationSchemes
{
    default         linear;
}

snGradSchemes
{
    default         limited corrected 0.333;
}

fluxRequired
{
    default         no;
    p;
}

// ************************************************************************* //
