/*--------------------------------*- C++ -*----------------------------------*\
| =========                 |                                                 |
| \\      /  F ield         | OpenFOAM: The Open Source CFD Toolbox           |
|  \\    /   O peration     | Version:  2.2.2                                 |
|   \\  /    A nd           | Web:      www.OpenFOAM.org                      |
|    \\/     M anipulation  |                                                 |
\*---------------------------------------------------------------------------*/
FoamFile
{
    version     2.0;
    format      ascii;
    class       featureEdgeMesh;
    location    "constant/triSurface";
    object      rotorBlades.eMesh;
}
// * * * * * * * * * * * * * * * * * * * * * * * * * * * * * * * * * * * * * //


// points:

104
(
(-6.88841e-18 0.0375 0.055)
(-6.88841e-18 0.0375 0.06)
(0.0375 9.18455e-18 0.065)
(0.0375 9.18455e-18 0.06)
(-0.0125 -1.53076e-18 0.06)
(-0.0125 -1.53076e-18 0.055)
(-4.13305e-18 0.0225 0.04)
(-5.0515e-18 0.0275 0.04)
(0.0225 5.51073e-18 0.08)
(0.0275 6.73533e-18 0.08)
(2.29614e-18 -0.0375 0.06)
(2.29614e-18 -0.0375 0.065)
(-2.29614e-18 0.0125 0.06)
(-2.29614e-18 0.0125 0.055)
(0.0125 3.06152e-18 0.06)
(0.0125 3.06152e-18 0.065)
(0.0325 7.95994e-18 0.04)
(0.0275 6.73533e-18 0.04)
(1.68383e-18 -0.0275 0.08)
(1.37768e-18 -0.0225 0.08)
(-0.0375 -4.59227e-18 0.06)
(-0.0375 -4.59227e-18 0.065)
(7.65379e-19 -0.0125 0.065)
(7.65379e-19 -0.0125 0.06)
(1.68383e-18 -0.0275 0.04)
(1.98999e-18 -0.0325 0.04)
(-0.0275 -3.36767e-18 0.08)
(-0.0225 -2.75536e-18 0.08)
(-6.88841e-18 0.0375 0.065)
(0.0375 9.18455e-18 0.07)
(-0.0125 -1.53076e-18 0.065)
(-0.0275 -3.36767e-18 0.04)
(-0.0325 -3.97997e-18 0.04)
(-5.0515e-18 0.0275 0.08)
(-4.13305e-18 0.0225 0.08)
(2.29614e-18 -0.0375 0.07)
(-2.29614e-18 0.0125 0.065)
(0.0125 3.06152e-18 0.07)
(-5.96996e-18 0.0325 0.04)
(0.0325 7.95994e-18 0.08)
(-0.0375 -4.59227e-18 0.07)
(7.65379e-19 -0.0125 0.07)
(0.0375 9.18455e-18 0.04)
(0.0375 9.18455e-18 0.045)
(1.98999e-18 -0.0325 0.08)
(-6.88841e-18 0.0375 0.07)
(0.0375 9.18455e-18 0.075)
(-0.0125 -1.53076e-18 0.07)
(2.29614e-18 -0.0375 0.04)
(2.29614e-18 -0.0375 0.045)
(0.0125 3.06152e-18 0.04)
(0.0125 3.06152e-18 0.045)
(0.0175 4.28612e-18 0.04)
(-0.0325 -3.97997e-18 0.08)
(2.29614e-18 -0.0375 0.075)
(-2.29614e-18 0.0125 0.07)
(0.0125 3.06152e-18 0.075)
(-0.0375 -4.59227e-18 0.04)
(-0.0375 -4.59227e-18 0.045)
(7.65379e-19 -0.0125 0.04)
(1.07153e-18 -0.0175 0.04)
(7.65379e-19 -0.0125 0.045)
(-5.96996e-18 0.0325 0.08)
(-0.0375 -4.59227e-18 0.075)
(7.65379e-19 -0.0125 0.075)
(-6.88841e-18 0.0375 0.04)
(-6.88841e-18 0.0375 0.045)
(0.0375 9.18455e-18 0.05)
(-0.0125 -1.53076e-18 0.04)
(-0.0175 -2.14306e-18 0.04)
(-0.0125 -1.53076e-18 0.045)
(-6.88841e-18 0.0375 0.075)
(0.0375 9.18455e-18 0.08)
(-0.0125 -1.53076e-18 0.075)
(2.29614e-18 -0.0375 0.05)
(-2.29614e-18 0.0125 0.04)
(-3.21459e-18 0.0175 0.04)
(-2.29614e-18 0.0125 0.045)
(0.0125 3.06152e-18 0.05)
(2.29614e-18 -0.0375 0.08)
(-2.29614e-18 0.0125 0.075)
(0.0125 3.06152e-18 0.08)
(0.0175 4.28612e-18 0.08)
(-0.0375 -4.59227e-18 0.05)
(7.65379e-19 -0.0125 0.05)
(0.0225 5.51073e-18 0.04)
(-0.0375 -4.59227e-18 0.08)
(7.65379e-19 -0.0125 0.08)
(1.07153e-18 -0.0175 0.08)
(-6.88841e-18 0.0375 0.05)
(0.0375 9.18455e-18 0.055)
(-0.0125 -1.53076e-18 0.05)
(1.37768e-18 -0.0225 0.04)
(-6.88841e-18 0.0375 0.08)
(-0.0125 -1.53076e-18 0.08)
(-0.0175 -2.14306e-18 0.08)
(2.29614e-18 -0.0375 0.055)
(-2.29614e-18 0.0125 0.05)
(0.0125 3.06152e-18 0.055)
(-0.0225 -2.75536e-18 0.04)
(-2.29614e-18 0.0125 0.08)
(-3.21459e-18 0.0175 0.08)
(-0.0375 -4.59227e-18 0.055)
(7.65379e-19 -0.0125 0.055)
)


// edges:

104
(
(0 1)
(2 3)
(4 5)
(6 7)
(8 9)
(10 11)
(12 13)
(14 15)
(16 17)
(18 19)
(20 21)
(22 23)
(24 25)
(26 27)
(1 28)
(29 2)
(30 4)
(31 32)
(33 34)
(11 35)
(36 12)
(15 37)
(7 38)
(9 39)
(21 40)
(41 22)
(42 16)
(43 42)
(44 18)
(28 45)
(46 29)
(47 30)
(25 48)
(48 49)
(50 51)
(52 50)
(53 26)
(35 54)
(55 36)
(37 56)
(32 57)
(57 58)
(59 60)
(61 59)
(62 33)
(40 63)
(64 41)
(38 65)
(65 66)
(67 43)
(68 69)
(70 68)
(45 71)
(72 46)
(39 72)
(73 47)
(49 74)
(75 76)
(77 75)
(51 78)
(79 44)
(54 79)
(80 55)
(56 81)
(81 82)
(58 83)
(84 61)
(85 52)
(86 53)
(63 86)
(87 64)
(88 87)
(66 89)
(90 67)
(91 70)
(60 92)
(93 62)
(71 93)
(94 73)
(95 94)
(74 96)
(97 77)
(78 98)
(69 99)
(100 80)
(101 100)
(83 102)
(103 84)
(76 6)
(82 8)
(89 0)
(3 90)
(5 91)
(17 85)
(19 88)
(96 10)
(13 97)
(98 14)
(92 24)
(27 95)
(102 20)
(23 103)
(99 31)
(34 101)
)

// * * * * * * * * * * * * * * * * * * * * * * * * * * * * * * * * * * * * * //


// ************************************************************************* //
