/*--------------------------------*- C++ -*----------------------------------*\
| =========                 |                                                 |
| \\      /  F ield         | OpenFOAM: The Open Source CFD Toolbox           |
|  \\    /   O peration     | Version:  2.2.2                                 |
|   \\  /    A nd           | Web:      www.OpenFOAM.org                      |
|    \\/     M anipulation  |                                                 |
\*---------------------------------------------------------------------------*/
FoamFile
{
    version     2.0;
    format      ascii;
    class       featureEdgeMesh;
    location    "constant/triSurface";
    object      statorBlades.eMesh;
}
// * * * * * * * * * * * * * * * * * * * * * * * * * * * * * * * * * * * * * //


// points:

352
(
(-1.83691e-17 0.1 0.13)
(-1.83691e-17 0.1 0.135)
(0.08 1.95937e-17 0.065)
(0.08 1.95937e-17 0.07)
(0.08 1.95937e-17 0.135)
(0.08 1.95937e-17 0.14)
(4.89843e-18 -0.08 0.07)
(4.89843e-18 -0.08 0.065)
(4.89843e-18 -0.08 0.14)
(4.89843e-18 -0.08 0.135)
(0.1 2.44921e-17 0.02)
(0.1 2.44921e-17 0.015)
(-0.08 -9.79685e-18 0.07)
(-0.08 -9.79685e-18 0.065)
(0.1 2.44921e-17 0.09)
(0.1 2.44921e-17 0.085)
(-0.08 -9.79685e-18 0.14)
(-0.08 -9.79685e-18 0.135)
(6.12303e-18 -0.1 0.015)
(6.12303e-18 -0.1 0.02)
(-1.46953e-17 0.08 0.07)
(-1.46953e-17 0.08 0.065)
(0.1 2.44921e-17 0.16)
(0.1 2.44921e-17 0.155)
(6.12303e-18 -0.1 0.085)
(6.12303e-18 -0.1 0.09)
(-0.1 -1.22461e-17 0.015)
(-0.1 -1.22461e-17 0.02)
(-1.46953e-17 0.08 0.14)
(-1.46953e-17 0.08 0.135)
(6.12303e-18 -0.1 0.155)
(6.12303e-18 -0.1 0.16)
(-0.1 -1.22461e-17 0.085)
(-0.1 -1.22461e-17 0.09)
(-1.83691e-17 0.1 0.015)
(-1.83691e-17 0.1 0.02)
(-0.1 -1.22461e-17 0.155)
(-0.1 -1.22461e-17 0.16)
(-1.83691e-17 0.1 0.085)
(-1.83691e-17 0.1 0.09)
(0.08 1.95937e-17 0.02)
(0.08 1.95937e-17 0.025)
(-1.83691e-17 0.1 0.155)
(-1.83691e-17 0.1 0.16)
(0.08 1.95937e-17 0.09)
(0.08 1.95937e-17 0.095)
(4.89843e-18 -0.08 0.025)
(4.89843e-18 -0.08 0.02)
(0.08 1.95937e-17 0.16)
(0.08 1.95937e-17 0.165)
(4.89843e-18 -0.08 0.095)
(4.89843e-18 -0.08 0.09)
(-0.08 -9.79685e-18 0.025)
(-0.08 -9.79685e-18 0.02)
(4.89843e-18 -0.08 0.165)
(4.89843e-18 -0.08 0.16)
(0.1 2.44921e-17 0.045)
(0.1 2.44921e-17 0.04)
(-0.08 -9.79685e-18 0.095)
(-0.08 -9.79685e-18 0.09)
(-1.46953e-17 0.08 0.025)
(-1.46953e-17 0.08 0.02)
(0.1 2.44921e-17 0.115)
(0.1 2.44921e-17 0.11)
(-0.08 -9.79685e-18 0.165)
(-0.08 -9.79685e-18 0.16)
(6.12303e-18 -0.1 0.04)
(6.12303e-18 -0.1 0.045)
(-1.46953e-17 0.08 0.095)
(-1.46953e-17 0.08 0.09)
(0.1 2.44921e-17 0.185)
(0.1 2.44921e-17 0.18)
(6.12303e-18 -0.1 0.11)
(6.12303e-18 -0.1 0.115)
(-0.1 -1.22461e-17 0.04)
(-0.1 -1.22461e-17 0.045)
(-1.46953e-17 0.08 0.165)
(-1.46953e-17 0.08 0.16)
(6.12303e-18 -0.1 0.18)
(6.12303e-18 -0.1 0.185)
(-0.1 -1.22461e-17 0.11)
(-0.1 -1.22461e-17 0.115)
(-1.83691e-17 0.1 0.04)
(-1.83691e-17 0.1 0.045)
(-0.1 -1.22461e-17 0.18)
(-0.1 -1.22461e-17 0.185)
(-1.83691e-17 0.1 0.11)
(-1.83691e-17 0.1 0.115)
(0.08 1.95937e-17 0.045)
(0.08 1.95937e-17 0.05)
(-1.83691e-17 0.1 0.18)
(-1.83691e-17 0.1 0.185)
(0.08 1.95937e-17 0.115)
(0.08 1.95937e-17 0.12)
(4.89843e-18 -0.08 0.05)
(4.89843e-18 -0.08 0.045)
(0.08 1.95937e-17 0.185)
(0.08 1.95937e-17 0.19)
(4.89843e-18 -0.08 0.12)
(4.89843e-18 -0.08 0.115)
(-0.08 -9.79685e-18 0.05)
(-0.08 -9.79685e-18 0.045)
(4.89843e-18 -0.08 0.19)
(4.89843e-18 -0.08 0.185)
(0.1 2.44921e-17 0.07)
(0.1 2.44921e-17 0.065)
(-0.08 -9.79685e-18 0.12)
(-0.08 -9.79685e-18 0.115)
(-1.46953e-17 0.08 0.05)
(-1.46953e-17 0.08 0.045)
(0.1 2.44921e-17 0.14)
(0.1 2.44921e-17 0.135)
(-0.08 -9.79685e-18 0.19)
(-0.08 -9.79685e-18 0.185)
(6.12303e-18 -0.1 0.065)
(6.12303e-18 -0.1 0.07)
(-1.46953e-17 0.08 0.12)
(-1.46953e-17 0.08 0.115)
(6.12303e-18 -0.1 0.135)
(6.12303e-18 -0.1 0.14)
(-0.1 -1.22461e-17 0.065)
(-0.1 -1.22461e-17 0.07)
(-1.46953e-17 0.08 0.19)
(-1.46953e-17 0.08 0.185)
(-0.1 -1.22461e-17 0.135)
(-0.1 -1.22461e-17 0.14)
(-1.83691e-17 0.1 0.065)
(-1.83691e-17 0.1 0.07)
(0.08 1.95937e-17 0)
(0.08 1.95937e-17 0.005)
(0.085 2.08183e-17 0)
(-1.83691e-17 0.1 0.14)
(0.08 1.95937e-17 0.075)
(4.89843e-18 -0.08 0)
(5.20458e-18 -0.085 0)
(4.89843e-18 -0.08 0.005)
(0.08 1.95937e-17 0.145)
(4.89843e-18 -0.08 0.075)
(-0.08 -9.79685e-18 0)
(-0.085 -1.04092e-17 0)
(-0.08 -9.79685e-18 0.005)
(4.89843e-18 -0.08 0.145)
(0.1 2.44921e-17 0.025)
(-0.08 -9.79685e-18 0.075)
(-1.46953e-17 0.08 0)
(-1.56137e-17 0.085 0)
(-1.46953e-17 0.08 0.005)
(0.1 2.44921e-17 0.095)
(-0.08 -9.79685e-18 0.145)
(6.12303e-18 -0.1 0.025)
(-1.46953e-17 0.08 0.075)
(0.1 2.44921e-17 0.165)
(6.12303e-18 -0.1 0.095)
(-0.1 -1.22461e-17 0.025)
(-1.46953e-17 0.08 0.145)
(0.09 2.20429e-17 0)
(6.12303e-18 -0.1 0.165)
(-0.1 -1.22461e-17 0.095)
(-1.83691e-17 0.1 0.025)
(-0.1 -1.22461e-17 0.165)
(-1.83691e-17 0.1 0.095)
(5.51073e-18 -0.09 0)
(0.08 1.95937e-17 0.03)
(-1.83691e-17 0.1 0.165)
(0.08 1.95937e-17 0.1)
(-0.09 -1.10215e-17 0)
(4.89843e-18 -0.08 0.03)
(0.08 1.95937e-17 0.17)
(4.89843e-18 -0.08 0.1)
(-1.65322e-17 0.09 0)
(-0.08 -9.79685e-18 0.03)
(4.89843e-18 -0.08 0.17)
(0.1 2.44921e-17 0.05)
(-0.08 -9.79685e-18 0.1)
(-1.46953e-17 0.08 0.03)
(0.095 2.32675e-17 0)
(0.1 2.44921e-17 0.12)
(-0.08 -9.79685e-18 0.17)
(6.12303e-18 -0.1 0.05)
(-1.46953e-17 0.08 0.1)
(0.1 2.44921e-17 0.19)
(6.12303e-18 -0.1 0.12)
(-0.1 -1.22461e-17 0.05)
(5.81688e-18 -0.095 0)
(-1.46953e-17 0.08 0.17)
(6.12303e-18 -0.1 0.19)
(-0.1 -1.22461e-17 0.12)
(-1.83691e-17 0.1 0.05)
(-0.1 -1.22461e-17 0.19)
(-0.095 -1.16338e-17 0)
(-1.83691e-17 0.1 0.12)
(0.08 1.95937e-17 0.055)
(-1.83691e-17 0.1 0.19)
(0.08 1.95937e-17 0.125)
(-1.74506e-17 0.095 0)
(4.89843e-18 -0.08 0.055)
(0.08 1.95937e-17 0.195)
(4.89843e-18 -0.08 0.125)
(0.1 2.44921e-17 0)
(0.1 2.44921e-17 0.005)
(-0.08 -9.79685e-18 0.055)
(4.89843e-18 -0.08 0.195)
(0.1 2.44921e-17 0.075)
(-0.08 -9.79685e-18 0.125)
(6.12303e-18 -0.1 0)
(6.12303e-18 -0.1 0.005)
(-1.46953e-17 0.08 0.055)
(0.1 2.44921e-17 0.145)
(-0.08 -9.79685e-18 0.195)
(6.12303e-18 -0.1 0.075)
(-0.1 -1.22461e-17 0)
(-0.1 -1.22461e-17 0.005)
(-1.46953e-17 0.08 0.125)
(6.12303e-18 -0.1 0.145)
(-0.1 -1.22461e-17 0.075)
(-1.83691e-17 0.1 0)
(-1.83691e-17 0.1 0.005)
(-1.46953e-17 0.08 0.195)
(-0.1 -1.22461e-17 0.145)
(-1.83691e-17 0.1 0.075)
(0.08 1.95937e-17 0.01)
(-1.83691e-17 0.1 0.145)
(0.08 1.95937e-17 0.08)
(4.89843e-18 -0.08 0.01)
(0.08 1.95937e-17 0.15)
(4.89843e-18 -0.08 0.08)
(-0.08 -9.79685e-18 0.01)
(4.89843e-18 -0.08 0.15)
(0.1 2.44921e-17 0.03)
(-0.08 -9.79685e-18 0.08)
(-1.46953e-17 0.08 0.01)
(0.1 2.44921e-17 0.1)
(-0.08 -9.79685e-18 0.15)
(6.12303e-18 -0.1 0.03)
(-1.46953e-17 0.08 0.08)
(0.1 2.44921e-17 0.17)
(6.12303e-18 -0.1 0.1)
(-0.1 -1.22461e-17 0.03)
(-1.46953e-17 0.08 0.15)
(6.12303e-18 -0.1 0.17)
(-0.1 -1.22461e-17 0.1)
(-1.83691e-17 0.1 0.03)
(-0.1 -1.22461e-17 0.17)
(-1.83691e-17 0.1 0.1)
(0.08 1.95937e-17 0.035)
(-1.83691e-17 0.1 0.17)
(0.08 1.95937e-17 0.105)
(4.89843e-18 -0.08 0.035)
(0.08 1.95937e-17 0.175)
(4.89843e-18 -0.08 0.105)
(-0.08 -9.79685e-18 0.035)
(4.89843e-18 -0.08 0.175)
(0.1 2.44921e-17 0.055)
(-0.08 -9.79685e-18 0.105)
(-1.46953e-17 0.08 0.035)
(0.1 2.44921e-17 0.125)
(-0.08 -9.79685e-18 0.175)
(6.12303e-18 -0.1 0.055)
(-1.46953e-17 0.08 0.105)
(0.1 2.44921e-17 0.195)
(6.12303e-18 -0.1 0.125)
(-0.1 -1.22461e-17 0.055)
(-1.46953e-17 0.08 0.175)
(6.12303e-18 -0.1 0.195)
(-0.1 -1.22461e-17 0.125)
(-1.83691e-17 0.1 0.055)
(-0.1 -1.22461e-17 0.195)
(-1.83691e-17 0.1 0.125)
(0.08 1.95937e-17 0.06)
(-1.83691e-17 0.1 0.195)
(0.08 1.95937e-17 0.13)
(4.89843e-18 -0.08 0.06)
(0.08 1.95937e-17 0.2)
(0.085 2.08183e-17 0.2)
(4.89843e-18 -0.08 0.13)
(4.89843e-18 -0.08 0.2)
(5.20458e-18 -0.085 0.2)
(0.1 2.44921e-17 0.01)
(-0.08 -9.79685e-18 0.06)
(-0.08 -9.79685e-18 0.2)
(-0.085 -1.04092e-17 0.2)
(0.1 2.44921e-17 0.08)
(-0.08 -9.79685e-18 0.13)
(6.12303e-18 -0.1 0.01)
(-1.46953e-17 0.08 0.06)
(0.1 2.44921e-17 0.15)
(6.12303e-18 -0.1 0.08)
(-1.46953e-17 0.08 0.2)
(-1.56137e-17 0.085 0.2)
(-0.1 -1.22461e-17 0.01)
(-1.46953e-17 0.08 0.13)
(6.12303e-18 -0.1 0.15)
(-0.1 -1.22461e-17 0.08)
(0.09 2.20429e-17 0.2)
(-1.83691e-17 0.1 0.01)
(-0.1 -1.22461e-17 0.15)
(5.51073e-18 -0.09 0.2)
(-1.83691e-17 0.1 0.08)
(0.08 1.95937e-17 0.015)
(-1.83691e-17 0.1 0.15)
(-0.09 -1.10215e-17 0.2)
(0.08 1.95937e-17 0.085)
(4.89843e-18 -0.08 0.015)
(0.08 1.95937e-17 0.155)
(-1.65322e-17 0.09 0.2)
(4.89843e-18 -0.08 0.085)
(0.095 2.32675e-17 0.2)
(-0.08 -9.79685e-18 0.015)
(4.89843e-18 -0.08 0.155)
(0.1 2.44921e-17 0.035)
(-0.08 -9.79685e-18 0.085)
(5.81688e-18 -0.095 0.2)
(-1.46953e-17 0.08 0.015)
(0.1 2.44921e-17 0.105)
(-0.08 -9.79685e-18 0.155)
(6.12303e-18 -0.1 0.035)
(-0.095 -1.16338e-17 0.2)
(-1.46953e-17 0.08 0.085)
(0.1 2.44921e-17 0.175)
(6.12303e-18 -0.1 0.105)
(-0.1 -1.22461e-17 0.035)
(-1.74506e-17 0.095 0.2)
(-1.46953e-17 0.08 0.155)
(6.12303e-18 -0.1 0.175)
(-0.1 -1.22461e-17 0.105)
(-1.83691e-17 0.1 0.035)
(0.1 2.44921e-17 0.2)
(-0.1 -1.22461e-17 0.175)
(6.12303e-18 -0.1 0.2)
(-1.83691e-17 0.1 0.105)
(0.08 1.95937e-17 0.04)
(-0.1 -1.22461e-17 0.2)
(-1.83691e-17 0.1 0.175)
(-1.83691e-17 0.1 0.2)
(0.08 1.95937e-17 0.11)
(4.89843e-18 -0.08 0.04)
(0.08 1.95937e-17 0.18)
(4.89843e-18 -0.08 0.11)
(-0.08 -9.79685e-18 0.04)
(4.89843e-18 -0.08 0.18)
(0.1 2.44921e-17 0.06)
(-0.08 -9.79685e-18 0.11)
(-1.46953e-17 0.08 0.04)
(0.1 2.44921e-17 0.13)
(-0.08 -9.79685e-18 0.18)
(6.12303e-18 -0.1 0.06)
(-1.46953e-17 0.08 0.11)
(6.12303e-18 -0.1 0.13)
(-0.1 -1.22461e-17 0.06)
(-1.46953e-17 0.08 0.18)
(-0.1 -1.22461e-17 0.13)
(-1.83691e-17 0.1 0.06)
)


// edges:

352
(
(0 1)
(2 3)
(4 5)
(6 7)
(8 9)
(10 11)
(12 13)
(14 15)
(16 17)
(18 19)
(20 21)
(22 23)
(24 25)
(26 27)
(28 29)
(30 31)
(32 33)
(34 35)
(36 37)
(38 39)
(40 41)
(42 43)
(44 45)
(46 47)
(48 49)
(50 51)
(52 53)
(54 55)
(56 57)
(58 59)
(60 61)
(62 63)
(64 65)
(66 67)
(68 69)
(70 71)
(72 73)
(74 75)
(76 77)
(78 79)
(80 81)
(82 83)
(84 85)
(86 87)
(88 89)
(90 91)
(92 93)
(94 95)
(96 97)
(98 99)
(100 101)
(102 103)
(104 105)
(106 107)
(108 109)
(110 111)
(112 113)
(114 115)
(116 117)
(118 119)
(120 121)
(122 123)
(124 125)
(126 127)
(128 129)
(130 128)
(1 131)
(3 132)
(133 134)
(135 133)
(5 136)
(137 6)
(138 139)
(140 138)
(141 8)
(142 10)
(143 12)
(144 145)
(146 144)
(147 14)
(148 16)
(19 149)
(150 20)
(151 22)
(25 152)
(27 153)
(154 28)
(155 130)
(31 156)
(33 157)
(35 158)
(37 159)
(39 160)
(134 161)
(41 162)
(43 163)
(45 164)
(139 165)
(166 46)
(49 167)
(168 50)
(145 169)
(170 52)
(171 54)
(172 56)
(173 58)
(174 60)
(175 155)
(176 62)
(177 64)
(67 178)
(179 68)
(180 70)
(73 181)
(75 182)
(161 183)
(184 76)
(79 185)
(81 186)
(83 187)
(85 188)
(165 189)
(87 190)
(89 191)
(91 192)
(93 193)
(169 194)
(195 94)
(97 196)
(197 98)
(198 175)
(199 198)
(200 100)
(201 102)
(202 104)
(203 106)
(183 204)
(204 205)
(206 108)
(207 110)
(208 112)
(115 209)
(189 210)
(210 211)
(212 116)
(119 213)
(121 214)
(194 215)
(215 216)
(217 122)
(125 218)
(127 219)
(129 220)
(131 221)
(132 222)
(223 135)
(136 224)
(225 137)
(226 140)
(227 141)
(228 142)
(229 143)
(230 146)
(231 147)
(232 148)
(149 233)
(234 150)
(235 151)
(152 236)
(153 237)
(238 154)
(156 239)
(157 240)
(158 241)
(159 242)
(160 243)
(162 244)
(163 245)
(164 246)
(247 166)
(167 248)
(249 168)
(250 170)
(251 171)
(252 172)
(253 173)
(254 174)
(255 176)
(256 177)
(178 257)
(258 179)
(259 180)
(181 260)
(182 261)
(262 184)
(185 263)
(186 264)
(187 265)
(188 266)
(190 267)
(191 268)
(192 269)
(193 270)
(271 195)
(196 272)
(272 273)
(274 197)
(275 201)
(276 275)
(277 199)
(278 200)
(279 208)
(280 279)
(281 202)
(282 203)
(205 283)
(284 206)
(285 207)
(209 286)
(287 217)
(288 287)
(211 289)
(290 212)
(213 291)
(214 292)
(273 293)
(216 294)
(218 295)
(296 276)
(219 297)
(220 298)
(221 299)
(300 280)
(222 301)
(302 223)
(224 303)
(304 288)
(305 225)
(293 306)
(307 226)
(308 227)
(309 228)
(310 229)
(311 296)
(312 230)
(313 231)
(314 232)
(233 315)
(316 300)
(317 234)
(318 235)
(236 319)
(237 320)
(321 304)
(322 238)
(239 323)
(240 324)
(241 325)
(326 259)
(306 326)
(242 327)
(328 311)
(263 328)
(243 329)
(244 330)
(331 316)
(266 331)
(245 332)
(333 321)
(269 333)
(246 334)
(335 247)
(248 336)
(337 249)
(338 250)
(339 251)
(340 252)
(341 253)
(342 254)
(343 255)
(344 256)
(257 345)
(346 258)
(260 347)
(261 348)
(349 262)
(264 350)
(265 351)
(267 0)
(268 2)
(270 4)
(7 271)
(9 274)
(11 277)
(13 278)
(15 281)
(17 282)
(283 18)
(21 284)
(23 285)
(286 24)
(289 26)
(29 290)
(291 30)
(292 32)
(294 34)
(295 36)
(297 38)
(298 40)
(299 42)
(301 44)
(47 302)
(303 48)
(51 305)
(53 307)
(55 308)
(57 309)
(59 310)
(61 312)
(63 313)
(65 314)
(315 66)
(69 317)
(71 318)
(319 72)
(320 74)
(77 322)
(323 78)
(324 80)
(325 82)
(327 84)
(329 86)
(330 88)
(332 90)
(334 92)
(95 335)
(336 96)
(99 337)
(101 338)
(103 339)
(105 340)
(107 341)
(109 342)
(111 343)
(113 344)
(345 114)
(117 346)
(347 118)
(348 120)
(123 349)
(350 124)
(351 126)
)

// * * * * * * * * * * * * * * * * * * * * * * * * * * * * * * * * * * * * * //


// ************************************************************************* //
