/*--------------------------------*- C++ -*----------------------------------*\
| =========                 |                                                 |
| \\      /  F ield         | OpenFOAM: The Open Source CFD Toolbox           |
|  \\    /   O peration     | Version:  2.2.2                                 |
|   \\  /    A nd           | Web:      www.OpenFOAM.org                      |
|    \\/     M anipulation  |                                                 |
\*---------------------------------------------------------------------------*/
FoamFile
{
    version     2.0;
    format      ascii;
    class       dictionary;
    location    "system";
    object      fvSchemes;
}
// * * * * * * * * * * * * * * * * * * * * * * * * * * * * * * * * * * * * * //

ddtSchemes
{
    default         steadyState;
}

gradSchemes
{
    default         Gauss linear;

    grad(p)         Gauss linear;
    grad(U)         Gauss linear;
}

divSchemes
{
    default         none;

    div(phi,U)      bounded Gauss upwind;
    div(phi,k)      bounded Gauss upwind;
    div(phi,epsilon) bounded Gauss upwind;
    div((nuEff*dev(T(grad(U))))) Gauss linear;

    div(-phi,Ua)    bounded Gauss upwind;
    div((nuEff*dev(T(grad(Ua))))) Gauss linear;
}

laplacianSchemes
{
    default         Gauss linear corrected;

    laplacian(nuEff,U) Gauss linear corrected;
    laplacian(1,p) Gauss linear corrected;
    laplacian(1|A(U),p) Gauss linear corrected;
    laplacian(DkEff,k) Gauss linear corrected;
    laplacian(DepsilonEff,epsilon) Gauss linear corrected;

    laplacian(nuEff,Ua) Gauss linear corrected;
    laplacian(1|A(Ua),pa) Gauss linear corrected;
}

interpolationSchemes
{
    default         linear;
    interpolate(U)  linear;
}

snGradSchemes
{
    default         corrected;
}

fluxRequired
{
    default         no;
    p;
    pa;
}

// ************************************************************************* //
